58

Pt       0.000000930  -2.295720000  -5.508110000
Pt       2.687820000  -2.295720000  -5.508110000
Pt       5.375640000  -2.295730000  -5.508110000
Mn      -1.343910000  -0.128360000  -5.506020000
Mn       1.343910000  -0.128360000  -5.506010000
Mn       4.031740000  -0.128360000  -5.506020000
Pt      -2.687820000   2.157360000  -5.356310000
Pt      -0.000000080   2.157360000  -5.356310000
Pt       2.687820000   2.157360000  -5.356310000
Pt       1.343910000  -3.178967000  -3.152310000
Pt       4.031730000  -3.178967000  -3.152300000
Pt       6.719550000  -3.178966000  -3.152300000
Pt       0.000000270  -0.801180000  -3.245320000
Pt       2.687820000  -0.801180000  -3.245320000
Pt       5.375640000  -0.801180000  -3.245320000
Pt      -1.343910000   1.484920000  -3.028060000
Pt       1.343910000   1.484920000  -3.028050000
Pt       4.031730000   1.484930000  -3.028060000
Mn       4.031730000   2.935920000  -0.869300000
Mn      -1.343910000   2.935930000  -0.869300000
Mn       1.343910000   2.935930000  -0.869300000
Pt       6.719550000  -1.680840000  -0.937300000
Pt       1.343910000  -1.680840000  -0.937300000
Pt       4.031730000  -1.680840000  -0.937300000
Mn      -2.687820000   0.965970000  -0.936300000
Mn       0.000001810   0.965970000  -0.936300000
Mn       2.687820000   0.965970000  -0.936300000
Mn       0.187769824  -2.171207652   1.294442215
Mn      -2.229585836   2.310933375   6.668216847
Pt       1.377989027  -3.005242728   3.379877052
Mn       2.615156863  -2.202786831   1.218859721
Pt       0.091494753   2.413980463   5.512945262
Mn       4.098603589  -3.136887016   3.362075364
Pt       5.279723926  -2.294603574   1.242681883
Pt       2.763037799   2.284559630   5.606039486
Pt       6.755969451  -3.056257809   3.317711369
Pt      -1.271202016  -0.029247385   1.101595317
Pt       0.292233900  -2.587772037   6.048596754
Mn       0.125334196  -0.656329876   3.139093187
Mn       1.372640483  -0.134233705   1.138101810
Pt       2.840684703  -2.271043853   5.574239832
Pt       2.693958942  -0.699328574   3.213494915
Mn       3.824286297  -0.041784526   0.969783695
Pt       5.452805802  -2.202599087   5.703070959
Pt       5.431298519  -0.760763044   3.401007292
Pt      -2.727370914   2.395033346   1.151780510
Pt      -1.281763675   0.076511230   5.657521176
Pt      -1.244934908   1.570116543   3.375759138
Pt       0.015037198   2.364534822   1.180310261
Pt       1.442654124  -0.020317624   5.477720569
Mn       1.311277805   1.529965043   3.368281633
Pt       2.655484646   2.229514225   1.171427742
Mn       4.138413898  -0.064267983   5.492285381
Pt       4.054367810   1.552890565   3.406486911
O        0.179133786  -0.629657291   6.957086227
O        6.643440839  -3.144818792   7.043139959
O       -1.735285514   2.575401421   8.109717232
O        4.372475327   1.241948502   6.678322420
